scripts/jump/data/case3.m
function mpc = case9
%CASE9    Power flow data for 9 bus, 3 generator case.
%   Please see CASEFORMAT for details on the case file format.
%
%   Based on data from Joe H. Chow's book, p. 70.

%   MATPOWER

%% MATPOWER Case Format : Version 2
mpc.version = '2';

%%-----  Power Flow Data  -----%%
%% system MVA base
mpc.baseMVA = 100;

%% bus data
%	bus_i	type	Pd	Qd	Gs	Bs	area	Vm	Va	baseKV	zone	Vmax	Vmin
mpc.bus = [
	1	3	0	    0	0	0	1	1	0	345	1	1.1	0.9;
	2	2	300.0	0	0	0	1	1	0	345	1	1.1	0.9;
	3	1	200.0	0	0	0	1	1	0	345	1	1.1	0.9;
];

%% generator data
%	bus	Pg	Qg	Qmax	Qmin	Vg	mBase	status	Pmax	Pmin	Pc1	Pc2	Qc1min	Qc1max	Qc2min	Qc2max	ramp_agc	ramp_10	ramp_30	ramp_q	apf
mpc.gen = [
	1	0	0	900	-3000	1	100	1	999	10	0	0	0	0	0	0	0	0	0	0	0;
	2	163	0	900	-3000	1	100	1	999	10	0	0	0	0	0	0	0	0	0	0	0;
];

%% branch data
%	fbus	tbus	r	x	b	rateA	rateB	rateC	ratio	angle	status	angmin	angmax
mpc.branch = [
	1	2	0.01	0.1 	0	    9999	9999	9999	0	0	1	-360	360;
	1	3	0.0154	0.1231	0.0  	9999	9999	9999	0	0	1	-360	360;
	2	3	0.005	0.0495	0.358	9999	9999	9999	0	0	1	-360	360;
];

%%-----  OPF Data  -----%%
%% generator cost data
%	1	startup	shutdown	n	x1	y1	...	xn	yn
%	2	startup	shutdown	n	c(n-1)	...	c0
mpc.gencost = [
	2	0	0	3	1.0	1.0	0.5;
	2	0	0	3	0.5	2.0	0.1;
];
